Pcp_File_Version=4
      1
Esperance
  
   NOBB     MIT iWeight
    157      25       2
  lWatF  lChemF    NMat   lTempF
      t       f       2       f
  Model   Hysteresis
      0       0
    thr     ths    Alfa       n         Ks       l
   0.12  0.3748 0.00492    1.82   8.7e-005     0.5 
      1       0       1       1          1       0 
  0.118  0.3748  0.0049    1.81    0.00085     0.5 
 0.1461  0.3748   0.005    1.83     9e-005     0.5 
    thr     ths    Alfa       n         Ks       l
   0.07    0.34 0.00015       7   5.8e-008     0.5 
      0       0       0       0          0       0 
      0       0       0       0          0       0 
      0       0       0       0          0       0 
      HO(N)         FOS   ITYPE(N) POS     WTS
         130  -0.00268772     0     2        1 
         260  -0.00358747     0     2        1 
         390  -0.00418869     0     2        1 
         521  -0.00478995     0     2        1 
         651   -0.0056897     0     2        1 
         781  -0.00629092     0     2        1 
         911  -0.00689214     0     2        1 
        1041  -0.00749336     0     2        1 
        1172  -0.00806252     0     2        1 
        1302  -0.00899437     0     2        1 
        1432  -0.00959559     0     2        1 
        1562   -0.0101968     0     2        1 
        1692    -0.010798     0     2        1 
        1823   -0.0113993     0     2        1 
        1953   -0.0120005     0     2        1 
        2083   -0.0126017     0     2        1 
        2213   -0.0128723     0     2        1 
        2343   -0.0135056     0     2        1 
        2473   -0.0141069     0     2        1 
        2604   -0.0147081     0     2        1 
        2734   -0.0149787     0     2        1 
        2864    -0.015612     0     2        1 
        2994   -0.0162133     0     2        1 
        3124   -0.0165159     0     2        1 
        3255   -0.0171172     0     2        1 
        3385   -0.0174199     0     2        1 
        3515   -0.0180211     0     2        1 
        3645   -0.0183238     0     2        1 
        3776   -0.0185944     0     2        1 
        3906   -0.0192278     0     2        1 
        4036   -0.0195305     0     2        1 
        4166    -0.019801     0     2        1 
        4296   -0.0204344     0     2        1 
        4426   -0.0207371     0     2        1 
        4557   -0.0210398     0     2        1 
        4687   -0.0213425     0     2        1 
        4817   -0.0216452     0     2        1 
        4947   -0.0219479     0     2        1 
        5077   -0.0222506     0     2        1 
        5208   -0.0225533     0     2        1 
        5338    -0.022856     0     2        1 
        5468   -0.0231587     0     2        1 
        5598   -0.0234614     0     2        1 
        5738   -0.0237644     0     2        1 
        5908   -0.0240683     0     2        1 
        6119   -0.0244057     0     2        1 
        6289   -0.0247097     0     2        1 
        6519   -0.0250156     0     2        1 
        6729   -0.0252888     0     2        1 
        6940    -0.025594     0     2        1 
        7210   -0.0259012     0     2        1 
        7441   -0.0262071     0     2        1 
        7701   -0.0265461     0     2        1 
        8081   -0.0268568     0     2        1 
        8482   -0.0271361     0     2        1 
        8832   -0.0274458     0     2        1 
        9333   -0.0277604     0     2        1 
        9904   -0.0280772     0     2        1 
       10775   -0.0284036     0     2        1 
       11967   -0.0287403     0     2        1 
       14120   -0.0291078     0     2        1 
       16113   -0.0292038     0     2        1 
       18441    -0.033339     0     2        1 
       18572   -0.0837625     0     2        1 
       18702    -0.133952     0     2        1 
       18837    -0.182988     0     2        1 
       18977    -0.232122     0     2        1 
       19117     -0.27698     0     2        1 
       19268    -0.318374     0     2        1 
       19418    -0.351975     0     2        1 
       19568    -0.378677     0     2        1 
       19718    -0.400538     0     2        1 
       19868    -0.418818     0     2        1 
       20019    -0.434975     0     2        1 
       20169    -0.449374     0     2        1 
       20319    -0.461618     0     2        1 
       20469    -0.472999     0     2        1 
       20619    -0.483154     0     2        1 
       20770    -0.492445     0     2        1 
       20920    -0.501139     0     2        1 
       21070    -0.508906     0     2        1 
       21220    -0.516108     0     2        1 
       21370     -0.52268     0     2        1 
       21521    -0.528655     0     2        1 
       21671    -0.534332     0     2        1 
       21821    -0.539711     0     2        1 
       21971    -0.544823     0     2        1 
       22121    -0.549604     0     2        1 
       22272    -0.553788     0     2        1 
       22422    -0.557972     0     2        1 
       22572    -0.562189     0     2        1 
       22722    -0.565744     0     2        1 
       22873    -0.569331     0     2        1 
       23023    -0.572619     0     2        1 
       23173     -0.57594     0     2        1 
       23323     -0.57893     0     2        1 
       23473     -0.58192     0     2        1 
       23624     -0.58491     0     2        1 
       23774    -0.587634     0     2        1 
       23954    -0.590593     0     2        1 
       24134    -0.593584     0     2        1 
       24314    -0.596277     0     2        1 
       24495      -0.5993     0     2        1 
       24705    -0.602292     0     2        1 
       24915    -0.604953     0     2        1 
       25126    -0.607977     0     2        1 
       25366     -0.61097     0     2        1 
       25606    -0.613665     0     2        1 
       25847    -0.616359     0     2        1 
       26117    -0.619353     0     2        1 
       26387    -0.622049     0     2        1 
       26688    -0.624745     0     2        1 
       26958    -0.627473     0     2        1 
       27289    -0.630138     0     2        1 
       27619    -0.632835     0     2        1 
       27950    -0.635565     0     2        1 
       28340    -0.638232     0     2        1 
       28701     -0.64093     0     2        1 
       29301     -0.64467     0     2        1 
       29901    -0.648271     0     2        1 
       30502    -0.651606     0     2        1 
       31102    -0.654909     0     2        1 
       31702    -0.657615     0     2        1 
       32302    -0.660652     0     2        1 
       33202    -0.664263     0     2        1 
       34102    -0.667906     0     2        1 
       35003    -0.670889     0     2        1 
       35903    -0.673935     0     2        1 
       36803     -0.67665     0     2        1 
       37703    -0.679398     0     2        1 
       38903     -0.68239     0     2        1 
       40104    -0.685147     0     2        1 
       41304    -0.687872     0     2        1 
       42805    -0.690906     0     2        1 
       44305     -0.69364     0     2        1 
       46105    -0.696715     0     2        1 
       47906     -0.69946     0     2        1 
       50006    -0.702182     0     2        1 
       52107    -0.704968     0     2        1 
       54808    -0.707741     0     2        1 
       57509    -0.710514     0     2        1 
       60510    -0.713329     0     2        1 
       64110    -0.716099     0     2        1 
       68011    -0.718911     0     2        1 
       72512    -0.721774     0     2        1 
       77613    -0.724624     0     2        1 
       83014    -0.727484     0     2        1 
       89316    -0.730341     0     2        1 
       95618    -0.733261     0     2        1 
      103120    -0.736188     0     2        1 
      110622    -0.739115     0     2        1 
      118724    -0.742062     0     2        1 
      126527      -0.7447     0     2        1 
      134929    -0.747357     0     2        1 
      143332    -0.750014     0     2        1 
      151435    -0.753163     0     2        1 
      155937     -0.75609     0     2        1 
end*** END OF INPUT FILE 'FIT.IN' **********************************
