Pcp_File_Version=4
      1
Esperance
  
   NOBB     MIT iWeight
    157      25       2
  lWatF  lChemF    NMat   lTempF
      t       f       2       f
  Model   Hysteresis
      0       0
    thr     ths    Alfa       n         Ks       l
   0.12  0.3748  0.0045     1.8   8.7e-005     0.5 
      1       0       1       1          1       0 
   0.01  0.3748   0.004       1     8e-005     0.5 
  0.146  0.3748   0.008     3.5     9e-005     0.5 
    thr     ths    Alfa       n         Ks       l
   0.07    0.34 0.00015       7   5.8e-008     0.5 
      0       0       0       0          0       0 
      0       0       0       0          0       0 
      0       0       0       0          0       0 
      HO(N)         FOS   ITYPE(N) POS     WTS
         130   -0.0030064     0     2        1 
         260  -0.00401283     0     2        1 
         390  -0.00468534     0     2        1 
         521  -0.00535788     0     2        1 
         651  -0.00636432     0     2        1 
         781  -0.00703682     0     2        1 
         911  -0.00770933     0     2        1 
        1041  -0.00838184     0     2        1 
        1172  -0.00901848     0     2        1 
        1302   -0.0100608     0     2        1 
        1432   -0.0107333     0     2        1 
        1562   -0.0114058     0     2        1 
        1692   -0.0120783     0     2        1 
        1823   -0.0127509     0     2        1 
        1953   -0.0134234     0     2        1 
        2083   -0.0140959     0     2        1 
        2213   -0.0143986     0     2        1 
        2343    -0.015107     0     2        1 
        2473   -0.0157795     0     2        1 
        2604    -0.016452     0     2        1 
        2734   -0.0167547     0     2        1 
        2864   -0.0174631     0     2        1 
        2994   -0.0181356     0     2        1 
        3124   -0.0184742     0     2        1 
        3255   -0.0191468     0     2        1 
        3385   -0.0194853     0     2        1 
        3515   -0.0201579     0     2        1 
        3645   -0.0204964     0     2        1 
        3776   -0.0207991     0     2        1 
        3906   -0.0215076     0     2        1 
        4036   -0.0218461     0     2        1 
        4166   -0.0221488     0     2        1 
        4296   -0.0228572     0     2        1 
        4426   -0.0231958     0     2        1 
        4557   -0.0235344     0     2        1 
        4687    -0.023873     0     2        1 
        4817   -0.0242116     0     2        1 
        4947   -0.0245502     0     2        1 
        5077   -0.0248888     0     2        1 
        5208   -0.0252274     0     2        1 
        5338    -0.025566     0     2        1 
        5468   -0.0259045     0     2        1 
        5598   -0.0262431     0     2        1 
        5738   -0.0265821     0     2        1 
        5908   -0.0269221     0     2        1 
        6119   -0.0272995     0     2        1 
        6289   -0.0276395     0     2        1 
        6519   -0.0279817     0     2        1 
        6729   -0.0282872     0     2        1 
        6940   -0.0286287     0     2        1 
        7210   -0.0289723     0     2        1 
        7441   -0.0293145     0     2        1 
        7701   -0.0296936     0     2        1 
        8081   -0.0300412     0     2        1 
        8482   -0.0303536     0     2        1 
        8832      -0.0307     0     2        1 
        9333   -0.0310519     0     2        1 
        9904   -0.0314063     0     2        1 
       10775   -0.0317714     0     2        1 
       11967    -0.032148     0     2        1 
       14120   -0.0325591     0     2        1 
       16113   -0.0326664     0     2        1 
       18441   -0.0372919     0     2        1 
       18572    -0.093694     0     2        1 
       18702    -0.149834     0     2        1 
       18837    -0.204685     0     2        1 
       18977    -0.259644     0     2        1 
       19117    -0.309821     0     2        1 
       19268    -0.356123     0     2        1 
       19418    -0.393708     0     2        1 
       19568    -0.423576     0     2        1 
       19718     -0.44803     0     2        1 
       19868    -0.468476     0     2        1 
       20019    -0.486549     0     2        1 
       20169    -0.502655     0     2        1 
       20319    -0.516351     0     2        1 
       20469    -0.529082     0     2        1 
       20619    -0.540441     0     2        1 
       20770    -0.550834     0     2        1 
       20920    -0.560559     0     2        1 
       21070    -0.569246     0     2        1 
       21220    -0.577302     0     2        1 
       21370    -0.584653     0     2        1 
       21521    -0.591337     0     2        1 
       21671    -0.597687     0     2        1 
       21821    -0.603703     0     2        1 
       21971    -0.609421     0     2        1 
       22121    -0.614769     0     2        1 
       22272     -0.61945     0     2        1 
       22422     -0.62413     0     2        1 
       22572    -0.628846     0     2        1 
       22722    -0.632823     0     2        1 
       22873    -0.636835     0     2        1 
       23023    -0.640514     0     2        1 
       23173    -0.644228     0     2        1 
       23323    -0.647573     0     2        1 
       23473    -0.650918     0     2        1 
       23624    -0.654262     0     2        1 
       23774    -0.657309     0     2        1 
       23954    -0.660619     0     2        1 
       24134    -0.663964     0     2        1 
       24314    -0.666976     0     2        1 
       24495    -0.670358     0     2        1 
       24705    -0.673705     0     2        1 
       24915    -0.676681     0     2        1 
       25126    -0.680064     0     2        1 
       25366    -0.683412     0     2        1 
       25606    -0.686426     0     2        1 
       25847     -0.68944     0     2        1 
       26117    -0.692789     0     2        1 
       26387    -0.695804     0     2        1 
       26688     -0.69882     0     2        1 
       26958    -0.701871     0     2        1 
       27289    -0.704852     0     2        1 
       27619    -0.707869     0     2        1 
       27950    -0.710922     0     2        1 
       28340    -0.713906     0     2        1 
       28701    -0.716924     0     2        1 
       29301    -0.721107     0     2        1 
       29901    -0.725136     0     2        1 
       30502    -0.728866     0     2        1 
       31102    -0.732561     0     2        1 
       31702    -0.735588     0     2        1 
       32302    -0.738984     0     2        1 
       33202    -0.743024     0     2        1 
       34102    -0.747099     0     2        1 
       35003    -0.750435     0     2        1 
       35903    -0.753842     0     2        1 
       36803     -0.75688     0     2        1 
       37703    -0.759953     0     2        1 
       38903    -0.763299     0     2        1 
       40104    -0.766384     0     2        1 
       41304    -0.769432     0     2        1 
       42805    -0.772825     0     2        1 
       44305    -0.775884     0     2        1 
       46105    -0.779324     0     2        1 
       47906    -0.782394     0     2        1 
       50006    -0.785438     0     2        1 
       52107    -0.788555     0     2        1 
       54808    -0.791657     0     2        1 
       57509    -0.794759     0     2        1 
       60510    -0.797908     0     2        1 
       64110    -0.801006     0     2        1 
       68011    -0.804151     0     2        1 
       72512    -0.807354     0     2        1 
       77613    -0.810542     0     2        1 
       83014    -0.813741     0     2        1 
       89316    -0.816936     0     2        1 
       95618    -0.820203     0     2        1 
      103120    -0.823477     0     2        1 
      110622    -0.826751     0     2        1 
      118724    -0.830047     0     2        1 
      126527    -0.832998     0     2        1 
      134929     -0.83597     0     2        1 
      143332    -0.838942     0     2        1 
      151435    -0.842464     0     2        1 
      155937    -0.845739     0     2        1 
end*** END OF INPUT FILE 'FIT.IN' **********************************
